67643243
  -OEChem-05192321543D

 25 26  0     0  0  0  0  0  0999 V2000
    1.7825    1.5614   -0.0008 S   0  0  0  0  0  0  0  0  0  0  0  0
    2.8354   -0.9880   -0.0041 N   0  0  0  0  0  0  0  0  0  0  0  0
    4.0864   -1.4758   -0.0005 N   0  0  0  0  0  0  0  0  0  0  0  0
    5.1121   -0.6092    0.0064 N   0  0  0  0  0  0  0  0  0  0  0  0
   -1.0045    1.3438   -0.0129 C   0  0  0  0  0  0  0  0  0  0  0  0
   -2.2629    0.5433   -0.0052 C   0  0  0  0  0  0  0  0  0  0  0  0
    0.2924    0.5174   -0.0101 C   0  0  0  0  0  0  0  0  0  0  0  0
   -2.8540    0.1610   -1.2093 C   0  0  0  0  0  0  0  0  0  0  0  0
   -2.8487    0.1770    1.2065 C   0  0  0  0  0  0  0  0  0  0  0  0
   -4.0312   -0.5875   -1.2019 C   0  0  0  0  0  0  0  0  0  0  0  0
   -4.0256   -0.5715    1.2141 C   0  0  0  0  0  0  0  0  0  0  0  0
   -4.6168   -0.9538    0.0099 C   0  0  0  0  0  0  0  0  0  0  0  0
    3.0760    0.3260    0.0007 C   0  0  0  0  0  0  0  0  0  0  0  0
    4.4589    0.5561    0.0071 C   0  0  0  0  0  0  0  0  0  0  0  0
   -1.0125    2.0072   -0.8889 H   0  0  0  0  0  0  0  0  0  0  0  0
   -1.0100    2.0176    0.8552 H   0  0  0  0  0  0  0  0  0  0  0  0
    0.3084   -0.1306    0.8737 H   0  0  0  0  0  0  0  0  0  0  0  0
    0.3148   -0.1266   -0.8966 H   0  0  0  0  0  0  0  0  0  0  0  0
   -2.4063    0.4381   -2.1601 H   0  0  0  0  0  0  0  0  0  0  0  0
   -2.3968    0.4666    2.1516 H   0  0  0  0  0  0  0  0  0  0  0  0
   -4.4912   -0.8857   -2.1394 H   0  0  0  0  0  0  0  0  0  0  0  0
   -4.4815   -0.8573    2.1575 H   0  0  0  0  0  0  0  0  0  0  0  0
   -5.5331   -1.5369    0.0158 H   0  0  0  0  0  0  0  0  0  0  0  0
    5.0146    1.4824    0.0120 H   0  0  0  0  0  0  0  0  0  0  0  0
    4.2527   -2.4759   -0.0028 H   0  0  0  0  0  0  0  0  0  0  0  0
  1  7  1  0  0  0  0
  1 13  1  0  0  0  0
  2  3  1  0  0  0  0
  2 13  2  0  0  0  0
  3  4  1  0  0  0  0
  3 25  1  0  0  0  0
  4 14  2  0  0  0  0
  5  6  1  0  0  0  0
  5  7  1  0  0  0  0
  5 15  1  0  0  0  0
  5 16  1  0  0  0  0
  6  8  2  0  0  0  0
  6  9  1  0  0  0  0
  7 17  1  0  0  0  0
  7 18  1  0  0  0  0
  8 10  1  0  0  0  0
  8 19  1  0  0  0  0
  9 11  2  0  0  0  0
  9 20  1  0  0  0  0
 10 12  2  0  0  0  0
 10 21  1  0  0  0  0
 11 12  1  0  0  0  0
 11 22  1  0  0  0  0
 12 23  1  0  0  0  0
 13 14  1  0  0  0  0
 14 24  1  0  0  0  0
M  END
> <PUBCHEM_COMPOUND_CID>
67643243

> <PUBCHEM_CONFORMER_RMSD>
0.6

> <PUBCHEM_CONFORMER_DIVERSEORDER>
1
46
34
44
75
43
69
70
49
73
35
32
45
8
71
41
72
40
42
22
7
74
52
10
31
67
3
55
58
76
30
50
57
26
53
68
37
23
54
51
47
25
62
66
38
18
24
28
65
33
64
36
17
29
4
39
19
63
12
13
6
59
2
48
5
21
27
16
14
11
9
56
61
20
15
60

> <PUBCHEM_MMFF94_PARTIAL_CHARGES>
21
1 -0.28
10 -0.15
11 -0.15
12 -0.15
13 0.34
14 0.14
19 0.15
2 -0.71
20 0.15
21 0.15
22 0.15
23 0.15
24 0.15
25 0.27
3 0.57
4 -0.71
5 0.14
6 -0.14
7 0.23
8 -0.15
9 -0.15

> <PUBCHEM_EFFECTIVE_ROTOR_COUNT>
4

> <PUBCHEM_PHARMACOPHORE_FEATURES>
4
1 2 acceptor
1 4 acceptor
5 2 3 4 13 14 rings
6 6 8 9 10 11 12 rings

> <PUBCHEM_HEAVY_ATOM_COUNT>
14

> <PUBCHEM_ATOM_DEF_STEREO_COUNT>
0

> <PUBCHEM_ATOM_UDEF_STEREO_COUNT>
0

> <PUBCHEM_BOND_DEF_STEREO_COUNT>
0

> <PUBCHEM_BOND_UDEF_STEREO_COUNT>
0

> <PUBCHEM_ISOTOPIC_ATOM_COUNT>
0

> <PUBCHEM_COMPONENT_COUNT>
1

> <PUBCHEM_CACTVS_TAUTO_COUNT>
3

> <PUBCHEM_CONFORMER_ID>
0408276B00000001

> <PUBCHEM_MMFF94_ENERGY>
23.5541

> <PUBCHEM_FEATURE_SELFOVERLAP>
20.347

> <PUBCHEM_SHAPE_FINGERPRINT>
10014705 185 10159695781340689393
100836 57 10159695820053287378
11543360 7 15574722412533660444
12596602 18 16845570941735262882
13167823 11 18060420226625426332
13675066 3 13542467570239832676
14123260 362 12324241642111416045
1420 369 18343867710085177662
14252887 29 17989493992004403388
14386348 63 18040155132151110819
14455015 7 18333456451703736451
15239191 94 18273213097036736740
15375462 189 18060699485631205448
17870717 6 17095526180042024371
18186145 218 16949999257580358213
19050596 39 17131836494739400145
1986462 14 16660361485090959493
200 152 18412822495405419961
20112054 13 11383839276907673657
20281475 54 18270119136046854021
20300324 65 14417852553366235591
20325693 3 15719391733538274441
20432913 95 18413672413319012402
20645476 183 13840265926931334417
20645477 56 11815901158519116193
20645477 70 18259983812060504052
20671657 53 18113622291395656476
20871999 31 16081367458097392917
22485316 2 18342737412031713873
22646028 1 18202281415774807004
22646028 28 18343582949352873453
22926399 37 7997975661242652343
231179 274 10592047951164751988
23402539 116 18410292488721295377
23403322 49 18186518800231379123
23557571 272 17168139014276927557
23559900 14 17458624574634699644
23596394 208 17313093125498439122
27216 239 11815897868879791191
2871803 45 18040995116317180266
351380 3 18201721751809009958
42 15 17632861931640732760
4921388 177 16081096986926991889
53428517 29 14692572108723298664
548570 60 10952051143247072219
57265010 4 15770060544892302447
573450 72 17131836477870656889
5924683 9 13614225015152720837

> <PUBCHEM_SHAPE_MULTIPOLES>
277.02
11.56
1.33
1.04
6.27
0.07
0
-4.48
0.04
0.84
0
-1.47
-0.05
0

> <PUBCHEM_SHAPE_SELFOVERLAP>
565.459

> <PUBCHEM_SHAPE_VOLUME>
161.5

> <PUBCHEM_COORDINATE_TYPE>
2
5
10

$$$$
